&NAM_ISBA              XUNIF_CLAY    = 0.30          ,
                       XUNIF_SAND    = 0.60          ,
	                   XUNIF_RUNOFFB = 0.5           ,
                       CISBA         = 'DIF'         ,
                       CPHOTO        = 'NON'         ,
                       NPATCH        = 1             ,
                       NGROUND_LAYER = 20
/
&NAM_ISBAn             CSCOND       = 'PL98'	,
                       CSOILFRZ     = 'LWT'	,
                       CDIFSFCOND   = 'DEF '	,
                       CSNOWRES     = 'RIL'	,
                       CALBEDO      = 'MEAN'	,
                       CROUGH       = 'Z01D'	,
                       CCPSURF      = 'DRY'
/
&NAM_DATA_ISBA         XUNIF_VEGTYPE(1)     = 0.,
                       XUNIF_VEGTYPE(2)     = 0.,
                       XUNIF_VEGTYPE(3)     = 0.,
                       XUNIF_VEGTYPE(4)     = 0.,
                       XUNIF_VEGTYPE(5)     = 0.,
                       XUNIF_VEGTYPE(6)     = 0.,
                       XUNIF_VEGTYPE(7)     = 0.,
                       XUNIF_VEGTYPE(8)     = 0.,
                       XUNIF_VEGTYPE(9)     = 0.,
                       XUNIF_VEGTYPE(10)    = 1.,
                       XUNIF_VEGTYPE(11)    = 0.,
                       XUNIF_VEGTYPE(12)    = 0.,
                       NTIME = 12 ,
                       XUNIF_VEG(1,1)       = 1.0 ,
                       XUNIF_VEG(1,2)       = 1.0 ,
                       XUNIF_VEG(1,3)       = 1.0 ,
                       XUNIF_VEG(1,4)       = 1.0 ,
                       XUNIF_VEG(1,5)       = 1.0 ,
                       XUNIF_VEG(1,6)       = 1.0 ,
                       XUNIF_VEG(1,7)       = 1.0 ,
                       XUNIF_VEG(1,8)       = 1.0 ,
                       XUNIF_VEG(1,9)       = 1.0 ,
                       XUNIF_VEG(1,10)      = 1.0 ,
                       XUNIF_VEG(1,11)      = 1.0 ,
                       XUNIF_VEG(1,12)      = 1.0 ,
                       XUNIF_LAI(1,1)       = 1.,
                       XUNIF_LAI(1,2)       = 1.,
                       XUNIF_LAI(1,3)       = 1.,
                       XUNIF_LAI(1,4)       = 1.,
                       XUNIF_LAI(1,5)       = 1.,
                       XUNIF_LAI(1,6)       = 1.,
                       XUNIF_LAI(1,7)       = 1.,
                       XUNIF_LAI(1,8)       = 1.,
                       XUNIF_LAI(1,9)       = 1.,
                       XUNIF_LAI(1,10)      = 1.,
                       XUNIF_LAI(1,11)      = 1.,
                       XUNIF_LAI(1,12)      = 1.,
                       XUNIF_Z0(1,1)        = 0.005 ,
                       XUNIF_Z0(1,2)        = 0.005 ,
                       XUNIF_Z0(1,3)        = 0.005 ,
                       XUNIF_Z0(1,4)        = 0.005 ,
                       XUNIF_Z0(1,5)        = 0.005 ,
                       XUNIF_Z0(1,6)        = 0.005 ,
                       XUNIF_Z0(1,7)        = 0.005 ,
                       XUNIF_Z0(1,8)        = 0.005 ,
                       XUNIF_Z0(1,9)        = 0.005 ,
                       XUNIF_Z0(1,10)       = 0.005 ,
                       XUNIF_Z0(1,11)       = 0.005 ,
                       XUNIF_Z0(1,12)       = 0.005 ,
                       XUNIF_EMIS(1,1)      = 0.97,
                       XUNIF_EMIS(1,2)      = 0.97,
                       XUNIF_EMIS(1,3)      = 0.97,
                       XUNIF_EMIS(1,4)      = 0.97,
                       XUNIF_EMIS(1,5)      = 0.97,
                       XUNIF_EMIS(1,6)      = 0.97,
                       XUNIF_EMIS(1,7)      = 0.97,
                       XUNIF_EMIS(1,8)      = 0.97,
                       XUNIF_EMIS(1,9)      = 0.97,
                       XUNIF_EMIS(1,10)     = 0.97,
                       XUNIF_EMIS(1,11)     = 0.97,
                       XUNIF_EMIS(1,12)     = 0.97,
                       XUNIF_RSMIN(1)       =40.,
                       XUNIF_GAMMA(1)       = 0.04,
                       XUNIF_WRMAX_CF(1)    = 0.2,
                       XUNIF_RGL(1)         =  30.,
                       XUNIF_CV(1)          = 0.00002,
                       XUNIF_Z0_O_Z0H(1)    = 10.,
                       XUNIF_ALBNIR_VEG(1)  = 0.12,
                       XUNIF_ALBVIS_VEG(1)  = 0.12,
                       XUNIF_ALBUV_VEG(1)   = 0.12,
                       XUNIF_ALBNIR_SOIL(1) = 0.12,
                       XUNIF_ALBVIS_SOIL(1) = 0.1,
                       XUNIF_ALBUV_SOIL(1)  = 0.2,
                       XUNIF_GMES(1)        = 0.001,
                       XUNIF_RE25(1)        = 0.00000018,
                       XUNIF_BSLAI(1)       = 0.08,
                       XUNIF_LAIMIN(1)      = 0.3,
                       XUNIF_SEFOLD(1)      = 12960000.,
                       XUNIF_GC(1)          = 0.00025,
                       XUNIF_DMAX(1)        = 0.05,
                       XUNIF_F2I(1)         = 0.3,
                       XUNIF_H_TREE(1)      = 20.,
                       XUNIF_CE_NITRO(1)    = 5.56,
                       XUNIF_CF_NITRO(1)    = 6.73,
                       XUNIF_CNA_NITRO(1)   = 1.3,
                       XUNIF_DG(1, 1)       =  0.01  ,
                       XUNIF_DG(1, 2)       =  0.03  ,
                       XUNIF_DG(1, 3)       =  0.06  ,
                       XUNIF_DG(1, 4)       =  0.10  ,
                       XUNIF_DG(1, 5)       =  0.20  ,
                       XUNIF_DG(1, 6)       =  0.30  ,
                       XUNIF_DG(1, 7)       =  0.45  ,
                       XUNIF_DG(1, 8)       =  0.60  ,
                       XUNIF_DG(1, 9)       =  0.80  ,
                       XUNIF_DG(1,10)       =  1.00  ,
                       XUNIF_DG(1,11)       =  1.25  ,
                       XUNIF_DG(1,12)       =  1.50  ,
                       XUNIF_DG(1,13)       =  2.00  ,
                       XUNIF_DG(1,14)       =  2.50  ,
                       XUNIF_DG(1,15)       =  3.00  ,
                       XUNIF_DG(1,16)       =  4.00  ,
                       XUNIF_DG(1,17)       =  5.00  ,
                       XUNIF_DG(1,18)       =  6.50  ,
                       XUNIF_DG(1,19)       =  8.00  ,
                       XUNIF_DG(1,20)       =  10.00 ,
                       XUNIF_ROOTFRAC(1,  1) =  0.000 ,
                       XUNIF_ROOTFRAC(1,  2) =  0.133 ,
                       XUNIF_ROOTFRAC(1,  3) =  0.209 ,
                       XUNIF_ROOTFRAC(1,  4) =  0.293 ,
                       XUNIF_ROOTFRAC(1,  5) =  0.379 ,
                       XUNIF_ROOTFRAC(1,  6) =  0.470 ,
                       XUNIF_ROOTFRAC(1,  7) =  0.560 ,
                       XUNIF_ROOTFRAC(1,  8) =  0.649 ,
                       XUNIF_ROOTFRAC(1,  9) =  0.731 ,
                       XUNIF_ROOTFRAC(1, 10) =  0.806 ,
                       XUNIF_ROOTFRAC(1, 11) =  0.870 ,
                       XUNIF_ROOTFRAC(1, 12) =  0.923 ,
                       XUNIF_ROOTFRAC(1, 13) =  0.958 ,
                       XUNIF_ROOTFRAC(1, 14) =  0.979 ,
                       XUNIF_ROOTFRAC(1, 15) =  0.993 ,
                       XUNIF_ROOTFRAC(1, 16) =  0.998 ,
                       XUNIF_ROOTFRAC(1, 17) =  0.999 ,
                       XUNIF_ROOTFRAC(1, 18) =  1.000 ,
                       XUNIF_ROOTFRAC(1, 19) =  1.000 ,
                       XUNIF_ROOTFRAC(1, 20) =  1.000
/
&NAM_FRAC              LECOCLIMAP = F,
                       XUNIF_SEA    = 0.,
                       XUNIF_WATER  = 0.,
                       XUNIF_TOWN   = 0.,
                       XUNIF_NATURE = 1.
/        
&NAM_PGD_GRID          CGRID = 'LONLATVAL' 
/
&NAM_LONLATVAL
    XX = $LON,$LON,
    XY = $LAT,$LAT,
    XDX = 0.5,0.5,
    XDY = 0.5,0.5,
    NPOINTS = $NO_POINTS
/
&NAM_PGD_SCHEMES       CNATURE = 'ISBA  '    ,
                       CSEA    = 'SEAFLX'    ,
                       CTOWN   = 'TEB   '    ,
                       CWATER  = 'WATFLX'
/
&NAM_ZS                XUNIF_ZS  = $ZS
/
&NAM_PREP_SURF_ATM NYEAR  = $YEAR,
                   NMONTH  = $MONTH,
                   NDAY  = $DAY,
                   XTIME  = $XTIME
/
&NAM_PREP_ISBA     XHUG_SURF = 0.10,
                   XHUG_ROOT = 0.10,
                   XHUG_DEEP = 0.10,
                   XTG_SURF  = 275.15,
                   XTG_ROOT  = 275.15,
                   XTG_DEEP  = 275.15,
/
&NAM_PREP_ISBA_SNOW    CSNOW = 'CRO',
                       NSNOW_LAYER = 50,
                       LSNOW_FRAC_TOT = T
/
&NAM_IO_OFFLINE        LPRINT  = T                       ,
                       CFORCING_FILETYPE =    'NETCDF'   ,
                       CSURF_FILETYPE =       'ASCII '   ,
                       CTIMESERIES_FILETYPE = 'NETCDF'   ,
                       LRESTART = T                      ,
                       XTSTEP_OUTPUT = 21600.            ,
                       XTSTEP_SURF = 900.
/
&NAM_DIAG_SURFn        LSURF_BUDGET = T      ,
                       N2M          = 1      ,
                       LCOEF        = F      ,
                       LSURF_VARS   = F      ,
                       LSURF_BUDGETC = F
/
&NAM_DIAG_SURF_ATMn    LFRAC        = F
/
&NAM_DIAG_ISBAn        LPGD              = T ,
                       LSURF_EVAP_BUDGET = T ,
                       LSURF_MISC_BUDGET = T
/
&NAM_DIAG_TEBn         LSURF_MISC_BUDGET = F
/
/
&NAM_SURF_ATM          LVERTSHIFT = F
/
&NAM_CROCUSn
  LSNOWDRIFT= T,
  LSNOWDRIFT_SUBLIM= F,
  CSNOWMETAMO = 'C13'
/
